Circuit: * C:\Users\todotson\Documents\Github\PyLTSpice\test_files\testfile.asc

Direct Newton iteration for .op point succeeded.
.step cap=1e-012
.step cap=1e-011
.step cap=1e-010
.step cap=1e-009

Date: Wed Oct 30 15:43:13 2019
Total elapsed time: 0.219 seconds.

tnom = 27
temp = 27
method = modified trap
totiter = 2645
traniter = 2642
tranpoints = 1322
accept = 1271
rejected = 51
matrix size = 3
fillins = 0
solver = Normal
Matrix Compiler1: 50 bytes object code size  0.0/0.0/[0.0]
Matrix Compiler2: off  [0.0]/0.0/0.0

